<?xml version="1.0" encoding="UTF-8"?>

<!-- generated on 2025-07-26 13:46:58 by Eclipse SUMO netedit Version 1.23.1
-->

<routes xmlns:xsi="http://www.w3.org/2001/XMLSchema-instance" xsi:noNamespaceSchemaLocation="http://sumo.dlr.de/xsd/routes_file.xsd">
    <!-- Vehicles, persons and containers (sorted by depart) -->
    <flow id="f_1_1" from="r_2_3_E" to="r_3_4_E" begin="0.00" end="1200.00" period="exp(0.05)"/>
    <flow id="f_1_2" from="r_2_3_E" to="r_3_4_E" begin="1200.00" end="1800.00" period="exp(0.15)"/>
    <flow id="f_0_1" from="r_3_4_W" to="r_2_3_W" begin="0.00" end="600.00" period="exp(0.15)"/>
    <flow id="f_0_2" from="r_3_4_W" to="r_2_3_W" begin="600.00" end="1800.00" period="exp(0.05)"/>
    <flow id="f_7" from="r_3_5_N" to="r_1_3_N" begin="0.00" end="1800.00" period="exp(0.05)"/>
    <flow id="f_6" from="r_1_3_S" to="r_3_5_S" begin="0.00" end="1800.00" period="exp(0.05)"/>
    <flow id="f_9" from="r_3_5_N" to="r_2_3_W" begin="0.00" end="1800.00" period="exp(0.025)"/>
    <flow id="f_8" from="r_1_3_S" to="r_3_4_E" begin="0.00" end="1800.00" period="exp(0.025)"/>
    <flow id="f_3" from="r_2_3_E" to="r_3_5_S" begin="0.00" end="1800.00" period="exp(0.025)"/>
    <flow id="f_2" from="r_3_4_W" to="r_1_3_N" begin="0.00" end="1800.00" period="exp(0.025)"/>
    <flow id="f_11" from="r_3_5_N" to="r_3_4_E" begin="0.00" end="1800.00" period="exp(0.01)"/>
    <flow id="f_10" from="r_1_3_S" to="r_2_3_W" begin="0.00" end="1800.00" period="exp(0.01)"/>
    <flow id="f_5" from="r_2_3_E" to="r_1_3_N" begin="0.00" end="1800.00" period="exp(0.01)"/>
    <flow id="f_4" from="r_3_4_W" to="r_3_5_S" begin="0.00" end="1800.00" period="exp(0.01)"/>
    
</routes>
