<?xml version="1.0" encoding="UTF-8"?>

<!-- generated on 2025-07-09 22:53:22 by Eclipse SUMO netedit Version 1.23.1
-->

<additional xmlns:xsi="http://www.w3.org/2001/XMLSchema-instance" xsi:noNamespaceSchemaLocation="http://sumo.dlr.de/xsd/additional_file.xsd">
    <!-- Detectors -->
    <laneAreaDetector id="q1" lane="r_1_3_S_0" pos="0.00" length="100.00" period="300.00" file="e2_2.xml"/>
    <laneAreaDetector id="q2" lane="r_1_3_S_1" pos="0.00" length="100.00" period="300.00" file="e2_3.xml"/>
    <laneAreaDetector id="q3" lane="r_3_4_W_0" pos="0.00" length="100.00" period="300.00" file="e2_4.xml"/>
    <laneAreaDetector id="q4" lane="r_3_4_W_1" pos="0.00" length="100.00" period="300.00" file="e2_5.xml"/>
    <laneAreaDetector id="q5" lane="r_3_5_N_0" pos="0.00" length="100.00" period="300.00" file="e2_6.xml"/>
    <laneAreaDetector id="q6" lane="r_3_5_N_1" pos="0.00" length="100.00" period="300.00" file="e2_7.xml"/>
    <laneAreaDetector id="q7" lane="r_2_3_E_0" pos="0.00" length="100.00" period="300.00" file="e2_0.xml"/>
    <laneAreaDetector id="q8" lane="r_2_3_E_1" pos="0.00" length="100.00" period="300.00" file="e2_1.xml"/>
</additional>
