<?xml version="1.0" encoding="UTF-8"?>

<!-- generated on 2025-07-10 01:35:08 by Eclipse SUMO sumo Version 1.23.1
-->

<sumoConfiguration xmlns:xsi="http://www.w3.org/2001/XMLSchema-instance" xsi:noNamespaceSchemaLocation="http://sumo.dlr.de/xsd/sumoConfiguration.xsd">

    <input>
        <net-file value="junction.net.xml"/>
        <route-files value="junction.rou.xml"/>
        <additional-files value="junction.add.xml"/>
    </input>

</sumoConfiguration>
