<?xml version="1.0" encoding="UTF-8"?>

<!-- generated on 2025-07-10 01:35:08 by Eclipse SUMO netedit Version 1.23.1
-->

<routes xmlns:xsi="http://www.w3.org/2001/XMLSchema-instance" xsi:noNamespaceSchemaLocation="http://sumo.dlr.de/xsd/routes_file.xsd">
    <!-- Vehicles, persons and containers (sorted by depart) -->
    <flow id="f_0" begin="0.00" from="r_3_4_W" to="r_2_3_W" end="3600.00" vehsPerHour="180"/>
    <flow id="f_1" begin="0.00" from="r_1_3_S" to="r_2_3_W" end="3600.00" vehsPerHour="250"/>
    <flow id="f_10" begin="0.00" from="r_3_5_N" to="r_1_3_N" end="3600.00" vehsPerHour="1"/>
    <flow id="f_11" begin="0.00" from="r_2_3_E" to="r_3_5_S" end="3600.00" vehsPerHour="30"/>
    <flow id="f_2" begin="0.00" from="r_3_5_N" to="r_2_3_W" end="3600.00" vehsPerHour="240"/>
    <flow id="f_3" begin="0.00" from="r_2_3_E" to="r_1_3_N" end="3600.00" vehsPerHour="100"/>
    <flow id="f_4" begin="0.00" from="r_3_5_N" to="r_1_3_N" end="3600.00" vehsPerHour="150"/>
    <flow id="f_5" begin="0.00" from="r_3_4_W" to="r_1_3_N" end="3600.00" vehsPerHour="100"/>
    <flow id="f_6" begin="0.00" from="r_1_3_S" to="r_3_4_E" end="3600.00" vehsPerHour="20"/>
    <flow id="f_7" begin="0.00" from="r_3_5_N" to="r_3_4_E" end="3600.00" vehsPerHour="20"/>
    <flow id="f_8" begin="0.00" from="r_2_3_E" to="r_3_4_E" end="3600.00" vehsPerHour="100"/>
    <flow id="f_9" begin="0.00" from="r_3_4_W" to="r_1_3_N" end="3600.00" vehsPerHour="60"/>
</routes>
